BEGIN NEW DATA CASE
C --------------------------------------------------------
C Generated by ATPDRAW  February, Saturday 14, 2015
C A Bonneville Power Administration program
C by H. K. Høidalen at SEfAS/NTNU - NORWAY 1994-2009
C --------------------------------------------------------
ALLOW EVEN PLOT FREQUENCY
C  dT  >< Tmax >< Xopt >< Copt >
   1.E-6     .06     60.     60.
     200    1000       0       1       0       0       0       1       0
C        1         2         3         4         5         6         7         8
C 345678901234567890123456789012345678901234567890123456789012345678901234567890
/BRANCH
C < n1 >< n2 ><ref1><ref2>< R  >< L  >< C  >
C < n1 >< n2 ><ref1><ref2>< R  >< A  >< B  ><Leng><><>0
1 2A    128A              5.935419.55282.546
2 2B    128B              2.37427.8207   0.05.935419.55282.546
3 2C    128C              2.37427.8207   0.02.37427.8207   0.05.935419.55282.546
1 1A    2A                9.617231.708133.38
2 1B    2B                3.846912.683   0.09.617231.708133.38
3 1C    2C                3.846912.683   0.03.846912.683   0.09.617231.708133.38
1 3A    1A                4.094513.45856.816
2 3B    1B                1.63785.3831   0.04.094513.45856.816
3 3C    1C                1.63785.3831   0.01.63785.3831   0.04.094513.45856.816
1 5A    4A                0.55862.532911.027
2 5B    4B                0.22341.0131   0.00.55862.532911.027
3 5C    4C                0.22341.0131   0.00.22341.0131   0.00.55862.532911.027
  TRANSFORMER                         X0001A  1.E6                             0
            9999
 18A                            15.417 3.4E5
 25A                            2.54241.38E5
  TRANSFORMER X0001A                  X0001B
 18B          
 25B          
  TRANSFORMER X0001A                  X0001C
 18C          
 25C          
1 128A  14A               6.8241 22.4495.358
2 128B  14B               2.72968.9761   0.06.8241 22.4495.358
3 128C  14C               2.72968.9761   0.02.72968.9761   0.06.8241 22.4495.358
1 5A    3A                7.649315.231119.99
2 5B    3B                3.0597-5.336-29.147.649315.231119.99
3 5C    3C                3.0597-5.336-29.143.0597-5.336-29.147.649315.231119.99
1 X0004AX0005A            3.7771 17.1474.879
2 X0004BX0005B            1.51086.8558   0.03.7771 17.1474.879
3 X0004CX0005C            1.51086.8558   0.01.51086.8558   0.03.7771 17.1474.879
1 I67A  I76A              1.45696.6019 28.88
2 I67B  I76B              0.58272.6408   0.01.45696.6019 28.88
3 I67C  I76C              0.58272.6408   0.00.58272.6408   0.01.45696.6019 28.88
1 9A    8A                4.840360.504976.27
2 9B    8B                1.936124.202   0.04.840360.504976.27
3 9C    8C                1.936124.202   0.01.936124.202   0.04.840360.504976.27
1 3A    128A              15.36250.784213.19
2 3B    128B              6.144920.314   0.015.36250.784213.19
3 3C    128C              6.144920.314   0.06.144920.314   0.015.36250.784213.19
1 128A  117A              10.44244.436187.99
2 128B  117B               4.17717.774   0.010.44244.436187.99
3 128C  117C               4.17717.774   0.0 4.17717.774   0.010.44244.436187.99
1 118A  75A               4.602315.26763.012
2 118B  75B               1.84096.1068   0.04.602315.26763.012
3 118C  75C               1.84096.1068   0.01.84096.1068   0.04.602315.26763.012
1 X0125A9A                5.118163.8771033.4
2 X0125B9B                2.047225.551   0.05.118163.8771033.4
3 X0125C9C                2.047225.551   0.02.047225.551   0.05.118163.8771033.4
1 4A    1112A             6.633721.83791.787
2 4B    1112B             2.65358.7348   0.06.633721.83791.787
3 4C    1112C             2.65358.7348   0.02.65358.7348   0.06.633721.83791.787
1 5A    1112A             6.443221.64791.262
2 5B    1112B             2.57738.6587   0.06.443221.64791.262
3 5C    1112C             2.57738.6587   0.02.57738.6587   0.06.443221.64791.262
1 1112A 128A              1.8885 6.221 26.36
2 1112B 128B              0.75542.4884   0.01.8885 6.221 26.36
3 1112C 128C              0.75542.4884   0.00.75542.4884   0.01.8885 6.221 26.36
1 128A  I76A               2.73610.79245.894
2 128B  I76B              1.09444.3166   0.0 2.73610.79245.894
3 128C  I76C              1.09444.3166   0.01.09444.3166   0.0 2.73610.79245.894
1 1112A 13A               7.062123.20298.509
2 1112B 13B               2.82499.2808   0.07.062123.20298.509
3 1112C 13C               2.82499.2808   0.02.82499.2808   0.07.062123.20298.509
1 13A   15A               23.61577.573329.13
2 13B   15B               9.445831.029   0.023.61577.573329.13
3 13C   15C               9.445831.029   0.09.445831.029   0.023.61577.573329.13
1 14A   15A               18.88561.893 263.6
2 14B   15B               7.554124.757   0.018.88561.893 263.6
3 14C   15C               7.554124.757   0.07.554124.757   0.018.88561.893 263.6
1 128A  16A               6.728926.471112.37
2 128B  16B               2.691610.588   0.06.728926.471112.37
3 128C  16C               2.691610.588   0.02.691610.588   0.06.728926.471112.37
1 15A   17A               4.1897 13.87233.14
2 15B   17B               1.67595.5482   0.04.1897 13.87233.14
3 15C   17C               1.67595.5482   0.01.67595.5482   0.04.1897 13.87233.14
1 16A   17A                14.4157.164 244.7
2 16B   17B                5.76422.865   0.0 14.4157.164 244.7
3 16C   17C                5.76422.865   0.0 5.76422.865   0.0 14.4157.164 244.7
1 17A   18A                3.90416.02968.158
2 17B   18B               1.56166.4115   0.0 3.90416.02968.158
3 17C   18C               1.56166.4115   0.01.56166.4115   0.0 3.90416.02968.158
1 17A   113A              2.89799.553740.328
2 17B   113B              1.15913.8215   0.02.89799.553740.328
3 17C   113C              1.15913.8215   0.01.15913.8215   0.02.89799.553740.328
1 19A   18A               3.777115.64859.966
2 19B   18B               1.51086.2591   0.03.777115.64859.966
3 19C   18C               1.51086.2591   0.01.51086.2591   0.03.777115.64859.966
1 19A   20A               7.998537.136156.48
2 19B   20B               3.199414.854   0.07.998537.136156.48
3 19C   20C               3.199414.854   0.03.199414.854   0.07.998537.136156.48
1 15A   19A               3.808812.50653.035
2 15B   19B               1.52355.0022   0.03.808812.50653.035
3 15C   19C               1.52355.0022   0.01.52355.0022   0.03.808812.50653.035
1 20A   21A               5.808426.947113.42
2 20B   21B               2.323410.779   0.05.808426.947113.42
3 20C   21C               2.323410.779   0.02.323410.779   0.05.808426.947113.42
1 21A   22A               6.633730.788129.17
2 21B   22B               2.653512.315   0.06.633730.788129.17
3 21C   22C               2.653512.315   0.02.653512.315   0.06.633730.788129.17
1 X0006AX0007A            10.85550.467212.14
2 X0006BX0007B             4.34220.187   0.010.85550.467212.14
3 X0006CX0007C             4.34220.187   0.0 4.34220.187   0.010.85550.467212.14
1 24A   23A               4.284915.616 261.5
2 24B   23B                1.7146.2464   0.04.284915.616 261.5
3 24C   23C                1.7146.2464   0.0 1.7146.2464   0.04.284915.616 261.5
  TRANSFORMER                         X0009A  1.E6                             0
            9999
 1X0008A                   1.E-6 1.E-6 1.5E4
 2G80A                     1.E-6 1.E-61.38E5
  TRANSFORMER X0009A                  X0009B
 1X0008B      
 2G80B        
  TRANSFORMER X0009A                  X0009C
 1X0008C      
 2G80C        
1 23A   2527A             4.951425.392453.69
2 23B   2527B             1.980610.157   0.04.951425.392453.69
3 23C   2527C             1.980610.157   0.01.980610.157   0.04.951425.392453.69
1 2725A 2527A             10.09351.736926.28
2 2725B 2527B             4.037320.694   0.010.09351.736926.28
3 2725C 2527C             4.037320.694   0.04.037320.694   0.010.09351.736926.28
1 X0012AX0013A            6.071927.138113.42
2 X0012BX0013B            2.428710.855   0.06.071927.138113.42
3 X0012CX0013C            2.428710.855   0.02.428710.855   0.06.071927.138113.42
1 29A   28A               7.522429.931124.97
2 29B   28B                3.00911.972   0.07.522429.931124.97
3 29C   28C                3.00911.972   0.0 3.00911.972   0.07.522429.931124.97
1 8A    B1A                 8.5599.981431.84
2 8B    B1B                 3.4239.992   0.0  8.5599.981431.84
3 8C    B1C                 3.4239.992   0.0  3.4239.992   0.0  8.5599.981431.84
1 I126A I261A              15.85 170.6762.86
2 I126B I261B             6.340168.241   0.0 15.85 170.6762.86
3 I126C I261C             6.340168.241   0.06.340168.241   0.0 15.85 170.6762.86
1 17A   31A               15.045 49.61209.51
2 17B   31B               6.017919.844   0.015.045 49.61209.51
3 17C   31C               6.017919.844   0.06.017919.844   0.015.045 49.61209.51
1 29A   31A               3.427910.50643.583
2 29B   31B               1.37124.2024   0.03.427910.50643.583
3 29C   31C               1.37124.2024   0.01.37124.2024   0.03.427910.50643.583
1 G32A  23A               10.06236.596615.94
2 G32B  23B               4.024614.638   0.010.06236.596615.94
3 G32C  23C               4.024614.638   0.04.024614.638   0.010.06236.596615.94
1 31A   G32A              9.458531.264 131.8
2 31B   G32B              3.783412.506   0.09.458531.264 131.8
3 31C   G32C              3.783412.506   0.03.783412.506   0.09.458531.264 131.8
1 G32A  2725A             7.268523.964101.13
2 G32B  2725B             2.90749.5855   0.07.268523.964101.13
3 G32C  2725C             2.90749.5855   0.02.90749.5855   0.07.268523.964101.13
1 15A   33A               12.06139.485167.72
2 15B   33B               4.824515.794   0.012.06139.485167.72
3 15C   33C               4.824515.794   0.04.824515.794   0.012.06139.485167.72
1 19A   34A               23.86878.398331.86
2 19B   34B               9.547431.359   0.023.86878.398331.86
3 19C   34C               9.547431.359   0.09.547431.359   0.023.86878.398331.86
1 36A   35A                0.7113.237514.073
2 36B   35B               0.2844 1.295   0.0 0.7113.237514.073
3 36C   35C               0.2844 1.295   0.00.2844 1.295   0.0 0.7113.237514.073
1 37A   35A               3.491415.77569.208
2 37B   35B               1.39666.3099   0.03.491415.77569.208
3 37C   35C               1.39666.3099   0.01.39666.3099   0.03.491415.77569.208
1 34A   37A               0.81252.9836 51.67
2 34B   37B                0.3251.1934   0.00.81252.9836 51.67
3 34C   37C                0.3251.1934   0.0 0.3251.1934   0.00.81252.9836 51.67
1 34A   36A               2.76468.506329.826
2 34B   36B               1.10583.4025   0.02.76468.506329.826
3 34C   36C               1.10583.4025   0.01.10583.4025   0.02.76468.506329.826
1 33A   37A               13.17245.071192.19
2 33B   37B               5.268818.028   0.013.17245.071192.19
3 33C   37C               5.268818.028   0.05.268818.028   0.013.17245.071192.19
1 39A   37A               10.18933.644141.78
2 39B   37B               4.075413.458   0.010.18933.644141.78
3 39C   37C               4.075413.458   0.04.075413.458   0.010.18933.644141.78
1 40A   37A               18.82253.323220.54
2 40B   37B               7.528721.329   0.018.82253.323220.54
3 40C   37C               7.528721.329   0.07.528721.329   0.018.82253.323220.54
1 40A   39A               5.840219.20381.495
2 40B   39B               2.33617.6811   0.05.840219.20381.495
3 40C   39C               2.33617.6811   0.02.33617.6811   0.05.840219.20381.495
1 40A   41A               4.602315.17264.167
2 40B   41B               1.84096.0687   0.04.602315.17264.167
3 40C   41C               1.84096.0687   0.01.84096.0687   0.04.602315.17264.167
1 40A   42A               17.61658.084 244.7
2 40B   42B               7.046323.234   0.017.61658.084 244.7
3 40C   42C               7.046323.234   0.07.046323.234   0.017.61658.084 244.7
1 G32A  114A              4.284919.42585.381
2 G32B  114B               1.714  7.77   0.04.284919.42585.381
3 G32C  114C               1.714  7.77   0.0 1.714  7.77   0.04.284919.42585.381
1 2725A 115A              5.205423.519103.55
2 2725B 115B              2.08219.4077   0.05.205423.519103.55
3 2725C 115C              2.08219.4077   0.02.08219.4077   0.05.205423.519103.55
1 41A   42A               13.01342.849180.63
2 41B   42B               5.2054 17.14   0.013.01342.849180.63
3 41C   42C               5.2054 17.14   0.05.2054 17.14   0.013.01342.849180.63
1 44A   43A               19.298 77.89318.63
2 44B   43B               7.719231.156   0.019.298 77.89318.63
3 44C   43C               7.719231.156   0.07.719231.156   0.019.298 77.89318.63
1 34A   43A               13.10953.355221.91
2 34B   43B               5.243421.342   0.013.10953.355221.91
3 34C   43C               5.243421.342   0.05.243421.342   0.013.10953.355221.91
1 44A   45A               7.109828.598117.62
2 44B   45B               2.843911.439   0.07.109828.598117.62
3 44C   45C               2.843911.439   0.02.843911.439   0.07.109828.598117.62
1 115A  114A                0.73 3.30114.493
2 115B  114B               0.2921.3204   0.0  0.73 3.30114.493
3 115C  114C               0.2921.3204   0.0 0.2921.3204   0.0  0.73 3.30114.493
1 68A   X0124A            0.67458.0342137.79
2 68B   X0124B            0.26983.2137   0.00.67458.0342137.79
3 68C   X0124C            0.26983.2137   0.00.26983.2137   0.00.67458.0342137.79
1 118A  76A               5.205417.26771.204
2 118B  76B               2.08216.9066   0.05.205417.26771.204
3 118C  76C               2.08216.9066   0.02.08216.9066   0.05.205417.26771.204
  TRANSFORMER                         X0014A  1.E6                             0
            9999
 1B1A                           21.2813.31E5
 217A                           3.69451.38E5
  TRANSFORMER X0014A                  X0014B
 1B1B         
 217B         
  TRANSFORMER X0014A                  X0014C
 1B1C         
 217C         
1 46A   45A               12.69643.039174.33
2 46B   45B               5.078417.216   0.012.69643.039174.33
3 46C   45C               5.078417.216   0.05.078417.216   0.012.69643.039174.33
1 46A   47A               12.061 40.31165.93
2 46B   47B               4.824516.124   0.012.061 40.31165.93
3 46C   47C               4.824516.124   0.04.824516.124   0.012.061 40.31165.93
1 46A   48A               19.07659.989247.85
2 46B   48B               7.630323.995   0.019.07659.989247.85
3 46C   48C               7.630323.995   0.07.630323.995   0.019.07659.989247.85
1 47A   49A               6.062319.83884.226
2 47B   49B               2.4249 7.935   0.06.062319.83884.226
3 47C   49C               2.4249 7.935   0.02.4249 7.935   0.06.062319.83884.226
1 42A   49A               22.694102.52451.59
2 42B   49B               9.077641.008   0.022.694102.52451.59
3 42C   49C               9.077641.008   0.09.077641.008   0.022.694102.52451.59
1 42A   49A               22.694102.52451.59
2 42B   49B               9.077641.008   0.022.694102.52451.59
3 42C   49C               9.077641.008   0.09.077641.008   0.022.694102.52451.59
1 45A   49A                21.7159.036233.14
2 45B   49B               8.684123.615   0.0 21.7159.036233.14
3 45C   49C               8.684123.615   0.08.684123.615   0.0 21.7159.036233.14
1 48A   49A               5.681516.02966.058
2 48B   49B               2.27266.4115   0.05.681516.02966.058
3 48C   49C               2.27266.4115   0.02.27266.4115   0.05.681516.02966.058
1 51A   49A               15.42643.484179.58
2 51B   49B               6.170317.394   0.015.42643.484179.58
3 51C   49C               6.170317.394   0.06.170317.394   0.015.42643.484179.58
1 50A   49A               8.474623.86898.404
2 50B   49B               3.38989.5474   0.08.474623.86898.404
3 50C   49C               3.38989.5474   0.03.38989.5474   0.08.474623.86898.404
1 52A   51A               6.443218.66373.304
2 52B   51B               2.57737.4652   0.06.443218.66373.304
3 52C   51C               2.57737.4652   0.02.57737.4652   0.06.443218.66373.304
1 53A   52A               12.85551.895213.19
2 53B   52B               5.141920.758   0.012.85551.895213.19
3 53C   52C               5.141920.758   0.05.141920.758   0.012.85551.895213.19
1 53A   54A               8.347638.723110.27
2 53B   54B                3.33915.489   0.08.347638.723110.27
3 53C   54C                3.33915.489   0.0 3.33915.489   0.08.347638.723110.27
1 54A   49A                23.1791.729387.52
2 54B   49B               9.268136.691   0.0 23.1791.729387.52
3 54C   49C               9.268136.691   0.09.268136.691   0.0 23.1791.729387.52
1 54A   49A               27.58292.363383.32
2 54B   49B               11.03336.945   0.027.58292.363383.32
3 54C   49C               11.03336.945   0.011.03336.945   0.027.58292.363383.32
1 54A   55A               5.3641 22.44106.07
2 54B   55B               2.14568.9761   0.05.3641 22.44106.07
3 54C   55C               2.14568.9761   0.02.14568.9761   0.05.3641 22.44106.07
1 54A   56A               0.87293.031238.437
2 54B   56B               0.34911.2125   0.00.87293.031238.437
3 54C   56C               0.34911.2125   0.00.34911.2125   0.00.87293.031238.437
1 56A   55A               1.54894.792719.639
2 56B   55B               0.61961.9171   0.01.54894.792719.639
3 56C   55C               0.61961.9171   0.00.61961.9171   0.01.54894.792719.639
1 56A   57A               10.88730.661127.07
2 56B   57B               4.354712.264   0.010.88730.661127.07
3 56C   57C               4.354712.264   0.04.354712.264   0.010.88730.661127.07
1 57A   50A               15.04542.532174.33
2 57B   50B               6.017917.013   0.015.04542.532174.33
3 57C   50C               6.017917.013   0.06.017917.013   0.015.04542.532174.33
1 56A   58A               10.88730.661127.07
2 56B   58B               4.354712.264   0.010.88730.661127.07
3 56C   58C               4.354712.264   0.04.354712.264   0.010.88730.661127.07
1 58A   51A               8.093722.82193.888
2 58B   51B               3.23759.1284   0.08.093722.82193.888
3 58C   51C               3.23759.1284   0.03.23759.1284   0.08.093722.82193.888
1 54A   59A               15.965 72.78314.01
2 54B   59B               6.386129.112   0.015.965 72.78314.01
3 54C   59C               6.386129.112   0.06.386129.112   0.015.965 72.78314.01
1 56A   59A               26.18579.667298.78
2 56B   59B               10.47431.867   0.026.18579.667298.78
3 56C   59C               10.47431.867   0.010.47431.867   0.026.18579.667298.78
1 56A   59A               25.48775.859281.45
2 56B   59B               10.19530.343   0.025.48775.859281.45
3 56C   59C               10.19530.343   0.010.19530.343   0.025.48775.859281.45
1 55A   59A               15.04268.495296.47
2 55B   59B               6.016627.398   0.015.04268.495296.47
3 55C   59C               6.016627.398   0.06.016627.398   0.015.04268.495296.47
1 59A   60A               10.06246.023197.44
2 59B   60B               4.024618.409   0.010.06246.023197.44
3 59C   60C               4.024618.409   0.04.024618.409   0.010.06246.023197.44
1 59A   61A               10.411 47.61203.74
2 59B   61B               4.164319.044   0.010.411 47.61203.74
3 59C   61C               4.164319.044   0.04.164319.044   0.010.411 47.61203.74
1 60A   61A               0.83794.284976.455
2 60B   61B               0.3352 1.714   0.00.83794.284976.455
3 60C   61C               0.3352 1.714   0.00.3352 1.714   0.00.83794.284976.455
1 60A   62A                3.90417.80677.085
2 60B   62B               1.56167.1225   0.0 3.90417.80677.085
3 60C   62C               1.56167.1225   0.01.56167.1225   0.0 3.90417.80677.085
1 61A   62A               2.615411.934 51.46
2 61B   62B               1.04624.7737   0.02.615411.934 51.46
3 61C   62C               1.04624.7737   0.01.04624.7737   0.02.615411.934 51.46
1 63A   64A                3.41239.675181.47
2 63B   64B               1.3648 15.87   0.0 3.41239.675181.47
3 63C   64C               1.3648 15.87   0.01.3648 15.87   0.0 3.41239.675181.47
1 B2A   X0017A            17.874 195.6878.81
2 B2B   X0017B            7.149478.239   0.017.874 195.6878.81
3 B2C   X0017C            7.149478.239   0.07.149478.239   0.017.874 195.6878.81
1 64A   65A               5.336359.909319.26
2 64B   65B               2.134523.964   0.05.336359.909319.26
3 64C   65C               2.134523.964   0.02.134523.964   0.05.336359.909319.26
1 49A   66A               5.713229.169130.22
2 49B   66B               2.285311.668   0.05.713229.169130.22
3 49C   66C               2.285311.668   0.02.285311.668   0.05.713229.169130.22
1 49A   66A               5.713229.169130.22
2 49B   66B               2.285311.668   0.05.713229.169130.22
3 49C   66C               2.285311.668   0.02.285311.668   0.05.713229.169130.22
1 62A   66A               15.29969.193314.01
2 62B   66B               6.119527.677   0.015.29969.193314.01
3 62C   66C               6.119527.677   0.06.119527.677   0.015.29969.193314.01
1 67A   62A               8.188937.136162.78
2 67B   62B               3.275614.854   0.08.188937.136162.78
3 67C   62C               3.275614.854   0.03.275614.854   0.08.188937.136162.78
1 67A   66A               7.109832.216140.83
2 67B   66B               2.843912.886   0.07.109832.216140.83
3 67C   66C               2.843912.886   0.02.843912.886   0.07.109832.216140.83
1 68A   65A               2.7376 31.74536.02
2 68B   65B                1.09512.696   0.02.7376 31.74536.02
3 68C   65C                1.09512.696   0.0 1.09512.696   0.02.7376 31.74536.02
1 47A   69A               26.78988.174 372.4
2 47B   69B               10.71535.269   0.026.78988.174 372.4
3 47C   69C               10.71535.269   0.010.71535.269   0.026.78988.174 372.4
1 49A   69A               31.264102.84434.78
2 49B   69B               12.50641.135   0.031.264102.84434.78
3 49C   69C               12.50641.135   0.012.50641.135   0.031.264102.84434.78
1 70A   69A                9.522 40.31640.62
2 70B   69B               3.808816.124   0.0 9.522 40.31640.62
3 70C   69C               3.808816.124   0.03.808816.124   0.0 9.522 40.31640.62
1 24A   70A               32.441130.61 535.6
2 24B   70B               12.97752.244   0.032.441130.61 535.6
3 24C   70C               12.97752.244   0.012.97752.244   0.032.441130.61 535.6
1 70A   71A               2.799511.26846.209
2 70B   71B               1.11984.5071   0.02.799511.26846.209
3 70C   71C               1.11984.5071   0.01.11984.5071   0.02.799511.26846.209
1 24A   72A               15.489 62.21256.25
2 24B   72B               6.195624.884   0.015.489 62.21256.25
3 24C   72C               6.195624.884   0.06.195624.884   0.015.489 62.21256.25
1 72A   71A               14.15657.132233.35
2 72B   71B               5.662422.853   0.014.15657.132233.35
3 72C   71C               5.662422.853   0.05.662422.853   0.014.15657.132233.35
1 71A   73A               2.7487 14.4161.962
2 71B   73B               1.0995 5.764   0.02.7487 14.4161.962
3 71C   73C               1.0995 5.764   0.01.0995 5.764   0.02.7487 14.4161.962
1 70A   74A               12.72841.992176.85
2 70B   74B               5.091116.797   0.012.72841.992176.85
3 70C   74C               5.091116.797   0.05.091116.797   0.012.72841.992176.85
1 70A   75A               13.58544.753189.04
2 70B   75B               5.433917.901   0.013.58544.753189.04
3 70C   75C               5.433917.901   0.05.433917.901   0.013.58544.753189.04
1 69A   75A               12.85538.723651.12
2 69B   75B               5.141915.489   0.012.85538.723651.12
3 69C   75C               5.141915.489   0.05.141915.489   0.012.85538.723651.12
1 74A   75A                3.90412.88654.295
2 74B   75B               1.56165.1546   0.0 3.90412.88654.295
3 74C   75C               1.56165.1546   0.01.56165.1546   0.0 3.90412.88654.295
1 76A   77A               14.09346.975193.24
2 76B   77B                5.637 18.79   0.014.09346.975193.24
3 76C   77C                5.637 18.79   0.0 5.637 18.79   0.014.09346.975193.24
1 69A   77A               9.807732.057 546.1
2 69B   77B               3.923112.823   0.09.807732.057 546.1
3 69C   77C               3.923112.823   0.03.923112.823   0.09.807732.057 546.1
1 75A   77A               19.07663.448262.55
2 75B   77B               7.630325.379   0.019.07663.448262.55
3 75C   77C               7.630325.379   0.07.630325.379   0.019.07663.448262.55
1 77A   78A               1.19343.935866.373
2 77B   78B               0.47741.5743   0.01.19343.935866.373
3 77C   78C               0.47741.5743   0.00.47741.5743   0.01.19343.935866.373
1 79A   78A                1.7337.744634.026
2 79B   78B               0.69323.0978   0.0 1.7337.744634.026
3 79C   78C               0.69323.0978   0.00.69323.0978   0.0 1.7337.744634.026
1 77A   G80A              5.395815.394247.85
2 77B   G80B              2.15836.1576   0.05.395815.394247.85
3 77C   G80C              2.15836.1576   0.02.15836.1576   0.05.395815.394247.85
1 77A   G80A              9.331633.327119.72
2 77B   G80B              3.732613.331   0.09.331633.327119.72
3 77C   G80C              3.732613.331   0.03.732613.331   0.09.331633.327119.72
1 79A   G80A              4.951422.34598.194
2 79B   G80B              1.9806 8.938   0.04.951422.34598.194
3 79C   G80C              1.9806 8.938   0.01.9806 8.938   0.04.951422.34598.194
1 68A   81A               3.471640.072678.85
2 68B   81B               1.388616.029   0.03.471640.072678.85
3 68C   81C               1.388616.029   0.01.388616.029   0.03.471640.072678.85
1 77A   82A               9.458527.074429.53
2 77B   82B               3.7834 10.83   0.09.458527.074429.53
3 77C   82C               3.7834 10.83   0.03.7834 10.83   0.09.458527.074429.53
1 83A   82A               3.554911.633199.54
2 83B   82B                1.4224.6531   0.03.554911.633199.54
3 83C   82C                1.4224.6531   0.0 1.4224.6531   0.03.554911.633199.54
1 83A   84A               16.44141.897136.53
2 83B   84B               6.576516.759   0.016.44141.897136.53
3 83C   84C               6.576516.759   0.06.576516.759   0.016.44141.897136.53
  TRANSFORMER                         X0019A  1.E6                             0
            9999
 1X0018A                   1.E-6 1.E-6 1.5E4
 287A                      1.E-6 1.E-61.38E5
  TRANSFORMER X0019A                  X0019B
 1X0018B      
 287B         
  TRANSFORMER X0019A                  X0019C
 1X0018C      
 287C         
1 83A   85A               13.64846.975182.73
2 83B   85B               5.4593 18.79   0.013.64846.975182.73
3 83C   85C               5.4593 18.79   0.05.4593 18.79   0.013.64846.975182.73
1 84A   85A               7.966720.34564.797
2 84B   85B               3.18678.1381   0.07.966720.34564.797
3 84C   85C               3.18678.1381   0.03.18678.1381   0.07.966720.34564.797
1 85A   86A               11.109 39.04144.93
2 85B   86B               4.443615.616   0.011.109 39.04144.93
3 85C   86C               4.443615.616   0.04.443615.616   0.011.109 39.04144.93
1 86A   87A               8.976165.829233.67
2 86B   87B               3.590426.332   0.08.976165.829233.67
3 86C   87C               3.590426.332   0.03.590426.332   0.08.976165.829233.67
1 85A   88A                6.34832.375144.93
2 85B   88B               2.5392 12.95   0.0 6.34832.375144.93
3 85C   88C               2.5392 12.95   0.02.5392 12.95   0.0 6.34832.375144.93
1 85A   89922A            7.5859 54.91 246.8
2 85B   89922B            3.034321.964   0.07.5859 54.91 246.8
3 85C   89922C            3.034321.964   0.03.034321.964   0.07.5859 54.91 246.8
1 88A   89922A            4.411922.599101.55
2 88B   89922B            1.76479.0396   0.04.411922.599101.55
3 88C   89922C            1.76479.0396   0.01.76479.0396   0.04.411922.599101.55
1 89922A90A               7.554131.645556.61
2 89922B90B               3.021612.658   0.07.554131.645556.61
3 89922C90C               3.021612.658   0.03.021612.658   0.07.554131.645556.61
1 89922A90A               16.44159.671277.25
2 89922B90B               6.576523.868   0.016.44159.671277.25
3 89922C90C               6.576523.868   0.06.576523.868   0.016.44159.671277.25
1 90A   91A                8.06226.535112.37
2 90B   91B               3.224810.614   0.0 8.06226.535112.37
3 90C   91C               3.224810.614   0.03.224810.614   0.0 8.06226.535112.37
1 89922A92892A            12.47450.181217.39
2 89922B92892B            4.989520.072   0.012.47450.181217.39
3 89922C92892C            4.989520.072   0.04.989520.072   0.012.47450.181217.39
1 92892A91A               12.28340.373 171.6
2 92892B91B               4.913416.149   0.012.28340.373 171.6
3 92892C91C               4.913416.149   0.04.913416.149   0.012.28340.373 171.6
1 93A   92892A            8.188926.916114.47
2 93B   92892B            3.275610.766   0.08.188926.916114.47
3 93C   92892C            3.275610.766   0.03.275610.766   0.08.188926.916114.47
1 94A   92892A            15.26750.149213.19
2 94B   92892B            6.1068 20.06   0.015.26750.149213.19
3 94C   92892C            6.1068 20.06   0.06.1068 20.06   0.015.26750.149213.19
1 94A   93A                7.07823.23498.509
2 94B   93B               2.83129.2935   0.0 7.07823.23498.509
3 94C   93C               2.83129.2935   0.02.83129.2935   0.0 7.07823.23498.509
1 95A   94A               4.189713.77558.286
2 95B   94B               1.67595.5101   0.04.189713.77558.286
3 95C   94C               1.67595.5101   0.01.67595.5101   0.04.189713.77558.286
1 G80A  96A               11.29957.767 259.4
2 G80B  96B               4.519823.107   0.011.29957.767 259.4
3 G80C  96C               4.519823.107   0.04.519823.107   0.011.29957.767 259.4
1 82A   96A               5.141916.822285.65
2 82B   96B               2.05686.7289   0.05.141916.822285.65
3 82C   96C               2.05686.7289   0.02.05686.7289   0.05.141916.822285.65
1 96A   94A               8.538127.582120.77
2 96B   94B               3.415211.033   0.08.538127.582120.77
3 96C   94C               3.415211.033   0.03.415211.033   0.08.538127.582120.77
1 G80A  97A               5.808429.645133.38
2 G80B  97B               2.323411.858   0.05.808429.645133.38